Version 4
SHEET 1 880 680
WIRE 368 240 368 224
WIRE -992 352 -992 336
WIRE 144 352 -240 352
WIRE 368 352 368 320
WIRE 368 352 240 352
WIRE -608 400 -704 400
WIRE -480 400 -544 400
WIRE -400 400 -480 400
WIRE -304 400 -400 400
WIRE -704 416 -704 400
WIRE 160 416 160 400
WIRE 160 416 112 416
WIRE 208 416 160 416
WIRE 112 448 112 416
WIRE 208 448 208 416
WIRE -992 464 -992 432
WIRE -992 464 -1104 464
WIRE -480 464 -480 400
WIRE -400 464 -400 400
WIRE -1104 480 -1104 464
WIRE -992 496 -992 464
WIRE -240 496 -240 448
WIRE -160 496 -240 496
WIRE -48 496 -96 496
WIRE 368 512 368 432
WIRE -704 528 -704 496
WIRE -480 576 -480 544
WIRE -400 576 -400 544
WIRE -992 592 -992 576
WIRE 112 592 112 528
WIRE 208 592 208 528
WIRE -240 608 -240 576
WIRE -48 608 -48 576
WIRE -704 656 -704 608
FLAG -704 656 0
FLAG -1104 480 0
FLAG -992 336 V+
FLAG -992 592 V-
FLAG -48 608 0
FLAG -480 576 0
FLAG -400 576 V-
FLAG 208 592 V+
FLAG 112 592 V-
FLAG 368 512 0
FLAG -240 608 V-
FLAG 368 224 V+
SYMBOL npn -304 352 R0
SYMATTR InstName Q1
SYMATTR Value miTBJ
SYMBOL nmos 240 400 M270
SYMATTR InstName M1
SYMATTR Value miMOS
SYMBOL voltage -704 512 R0
WINDOW 123 0 0 Left 0
WINDOW 39 0 0 Left 0
SYMATTR InstName V1
SYMATTR Value SINE(0 10m 10k)
SYMBOL res -720 400 R0
SYMATTR InstName R1
SYMATTR Value 1k
SYMBOL cap -544 384 R90
WINDOW 0 0 32 VBottom 2
WINDOW 3 32 32 VTop 2
SYMATTR InstName C1
SYMATTR Value 1µ
SYMBOL res -464 560 R180
WINDOW 0 36 76 Left 2
WINDOW 3 36 40 Left 2
SYMATTR InstName R2
SYMATTR Value 90k
SYMBOL res -384 560 R180
WINDOW 0 36 76 Left 2
WINDOW 3 36 40 Left 2
SYMATTR InstName R3
SYMATTR Value 30k
SYMBOL voltage -992 336 R0
WINDOW 123 0 0 Left 0
WINDOW 39 0 0 Left 0
SYMATTR InstName V2
SYMATTR Value 24
SYMBOL voltage -992 480 R0
WINDOW 123 0 0 Left 0
WINDOW 39 0 0 Left 0
SYMATTR InstName V3
SYMATTR Value 24
SYMBOL res -256 480 R0
SYMATTR InstName R4
SYMATTR Value 5k
SYMBOL cap -96 480 R90
WINDOW 0 0 32 VBottom 2
WINDOW 3 32 32 VTop 2
SYMATTR InstName C2
SYMATTR Value 10µ
SYMBOL res -64 480 R0
SYMATTR InstName R5
SYMATTR Value 100
SYMBOL res 96 432 R0
SYMATTR InstName R6
SYMATTR Value 32k
SYMBOL res 192 432 R0
SYMATTR InstName R7
SYMATTR Value 64k
SYMBOL res 352 224 R0
SYMATTR InstName R8
SYMATTR Value 24k
SYMBOL res 352 336 R0
SYMATTR InstName R9
SYMATTR Value 8k
TEXT -168 -128 Left 2 !.model miTBJ NPN(BF=100 Vaf = 100)
TEXT -168 -96 Left 2 !.model miMOS NMOS(VTO=1 KP=2m W=1u L=1u LAMBDA=0.01)
TEXT -680 224 Left 2 !.tran 0.5m
