Version 4
SHEET 1 3460 1012
WIRE 2608 -112 2432 -112
WIRE 2736 -112 2608 -112
WIRE 3184 -112 2736 -112
WIRE 160 -96 -16 -96
WIRE 288 -96 160 -96
WIRE 736 -96 288 -96
WIRE 2432 -96 2432 -112
WIRE 2736 -96 2736 -112
WIRE 3184 -32 3184 -112
WIRE 736 -16 736 -96
WIRE -16 16 -16 -96
WIRE 288 16 288 -96
WIRE 2432 16 2432 -16
WIRE 2736 16 2736 -16
WIRE 2528 64 2496 64
WIRE 2672 64 2528 64
WIRE 3184 112 3184 48
WIRE 736 128 736 64
WIRE 2432 160 2432 112
WIRE 2528 160 2528 64
WIRE 2528 160 2432 160
WIRE 2736 160 2736 112
WIRE 2928 160 2736 160
WIRE 3120 160 2928 160
WIRE 288 176 288 96
WIRE 480 176 288 176
WIRE 672 176 480 176
WIRE 2432 256 2432 160
WIRE 2736 256 2736 160
WIRE -16 272 -16 96
WIRE 288 272 288 176
WIRE 3184 272 3184 208
WIRE 3392 272 3184 272
WIRE 736 288 736 224
WIRE 944 288 736 288
WIRE 2256 304 2192 304
WIRE 2368 304 2336 304
WIRE 2880 304 2800 304
WIRE -208 320 -256 320
WIRE -192 320 -208 320
WIRE -80 320 -112 320
WIRE 432 320 352 320
WIRE 2880 320 2880 304
WIRE -256 336 -256 320
WIRE 432 336 432 320
WIRE 3392 352 3392 272
WIRE 944 368 944 288
WIRE 2192 416 2192 304
WIRE 2432 416 2432 352
WIRE 2592 416 2432 416
WIRE 2736 416 2736 352
WIRE 2736 416 2592 416
WIRE -256 432 -256 416
WIRE -16 432 -16 368
WIRE 144 432 -16 432
WIRE 288 432 288 368
WIRE 288 432 144 432
WIRE 432 432 432 416
WIRE 432 432 400 432
WIRE 2880 432 2880 400
WIRE -208 464 -208 320
WIRE 400 464 400 432
WIRE 400 464 -208 464
WIRE 3392 464 3392 432
WIRE 944 480 944 448
WIRE 1984 496 1904 496
WIRE 2112 496 2064 496
WIRE 2240 496 2112 496
WIRE 2896 496 2416 496
WIRE -464 512 -544 512
WIRE -336 512 -384 512
WIRE -208 512 -336 512
WIRE 448 512 -32 512
WIRE 3184 512 3184 272
WIRE 736 528 736 288
WIRE 1904 528 1904 496
WIRE 2112 528 2112 496
WIRE 2592 528 2592 416
WIRE -544 544 -544 512
WIRE -336 544 -336 512
WIRE 144 544 144 432
WIRE 2896 560 2896 496
WIRE 3120 560 2896 560
WIRE 448 576 448 512
WIRE 672 576 448 576
WIRE 2240 576 2240 496
WIRE 2240 576 2176 576
WIRE 2416 576 2416 496
WIRE 2416 576 2240 576
WIRE 2528 576 2416 576
WIRE -208 592 -208 512
WIRE -208 592 -272 592
WIRE -32 592 -32 512
WIRE -32 592 -208 592
WIRE 80 592 -32 592
WIRE 2112 672 2112 624
WIRE 2592 672 2592 624
WIRE 3184 672 3184 608
WIRE -336 688 -336 640
WIRE 144 688 144 640
WIRE 736 688 736 624
WIRE 2112 816 2112 752
WIRE 2592 816 2592 752
WIRE 2592 816 2112 816
WIRE 3184 816 3184 752
WIRE 3184 816 2592 816
WIRE -336 832 -336 768
WIRE 144 832 144 768
WIRE 144 832 -336 832
WIRE 736 832 736 768
WIRE 736 832 144 832
WIRE 2592 896 2592 816
WIRE 144 912 144 832
FLAG 144 992 0
FLAG 160 -16 0
FLAG -544 544 0
FLAG 944 480 0
FLAG -256 432 0
FLAG 480 176 vo1
FLAG 944 288 vo
FLAG 2592 976 0
FLAG 2608 -32 0
FLAG 1904 528 0
FLAG 3392 464 0
FLAG 2192 416 0
FLAG 2880 432 0
FLAG 2928 160 vo1
FLAG 3392 272 vo
DATAFLAG 304 176 ""
DATAFLAG 736 288 ""
DATAFLAG 624 176 "$-V(N002)"
DATAFLAG 2752 160 ""
DATAFLAG 3184 272 ""
DATAFLAG 2432 144 ""
SYMBOL res -32 0 R0
SYMATTR InstName R1
SYMATTR Value 10k
SYMBOL res 272 0 R0
SYMATTR InstName R2
SYMATTR Value 10k
SYMBOL npn -80 272 R0
SYMATTR InstName Q1
SYMATTR Value mynpn
SYMBOL npn 352 272 M0
SYMATTR InstName Q2
SYMATTR Value mynpn
SYMBOL voltage 160 -112 R0
WINDOW 123 0 0 Left 0
WINDOW 39 0 0 Left 0
SYMATTR InstName V1
SYMATTR Value 9
SYMBOL npn 80 544 R0
SYMATTR InstName Q3
SYMATTR Value mynpn
SYMBOL res 128 672 R0
SYMATTR InstName R5
SYMATTR Value 4108
SYMBOL voltage 144 896 R0
WINDOW 123 0 0 Left 0
WINDOW 39 0 0 Left 0
SYMATTR InstName V2
SYMATTR Value -9
SYMBOL npn -272 544 M0
SYMATTR InstName Q4
SYMATTR Value mynpn
SYMBOL res -352 672 R0
SYMATTR InstName R6
SYMATTR Value 1k
SYMBOL res -368 496 R90
WINDOW 0 0 56 VBottom 2
WINDOW 3 32 56 VTop 2
SYMATTR InstName R7
SYMATTR Value 1k
SYMBOL pnp 672 224 M180
SYMATTR InstName Q5
SYMATTR Value mypnp
SYMBOL res 720 -32 R0
SYMATTR InstName R8
SYMATTR Value 1k
SYMBOL npn 672 528 R0
SYMATTR InstName Q6
SYMATTR Value mynpn
SYMBOL res 720 672 R0
SYMATTR InstName R9
SYMATTR Value 1k
SYMBOL res 928 352 R0
SYMATTR InstName R10
SYMATTR Value 10k
SYMBOL voltage -256 320 R0
WINDOW 123 24 124 Left 2
WINDOW 39 0 0 Left 0
SYMATTR Value2 AC 1
SYMATTR InstName V3
SYMATTR Value ""
SYMBOL res -96 304 R90
WINDOW 0 0 56 VBottom 2
WINDOW 3 32 56 VTop 2
SYMATTR InstName R3
SYMATTR Value 1k
SYMBOL res 416 320 R0
SYMATTR InstName R4
SYMATTR Value 1k
SYMBOL npn 2368 256 R0
SYMATTR InstName Q7
SYMATTR Value mynpn
SYMBOL npn 2800 256 M0
SYMATTR InstName Q8
SYMATTR Value mynpn
SYMBOL voltage 2608 -128 R0
WINDOW 123 0 0 Left 0
WINDOW 39 0 0 Left 0
SYMATTR InstName V4
SYMATTR Value 9
SYMBOL npn 2528 528 R0
SYMATTR InstName Q9
SYMATTR Value mynpn
SYMBOL res 2576 656 R0
SYMATTR InstName R13
SYMATTR Value 4108
SYMBOL voltage 2592 880 R0
WINDOW 123 0 0 Left 0
WINDOW 39 0 0 Left 0
SYMATTR InstName V5
SYMATTR Value -9
SYMBOL npn 2176 528 M0
SYMATTR InstName Q10
SYMATTR Value mynpn
SYMBOL res 2096 656 R0
SYMATTR InstName R14
SYMATTR Value 1k
SYMBOL res 2080 480 R90
WINDOW 0 0 56 VBottom 2
WINDOW 3 32 56 VTop 2
SYMATTR InstName R15
SYMATTR Value 1k
SYMBOL pnp 3120 208 M180
SYMATTR InstName Q11
SYMATTR Value mypnp
SYMBOL res 3168 -48 R0
SYMATTR InstName R16
SYMATTR Value 1k
SYMBOL npn 3120 512 R0
SYMATTR InstName Q12
SYMATTR Value mynpn
SYMBOL res 3168 656 R0
SYMATTR InstName R17
SYMATTR Value 1k
SYMBOL res 3376 336 R0
SYMATTR InstName R18
SYMATTR Value 10k
SYMBOL res 2352 288 R90
WINDOW 0 0 56 VBottom 2
WINDOW 3 32 56 VTop 2
SYMATTR InstName R19
SYMATTR Value 1k
SYMBOL res 2864 304 R0
SYMATTR InstName R20
SYMATTR Value 1k
SYMBOL res 2416 -112 R0
SYMATTR InstName R11
SYMATTR Value 8350
SYMBOL res 2720 -112 R0
SYMATTR InstName R12
SYMATTR Value 8556.7
SYMBOL pnp 2672 112 M180
SYMATTR InstName Q13
SYMATTR Value mypnp
SYMBOL pnp 2496 112 R180
SYMATTR InstName Q14
SYMATTR Value mypnp
TEXT -832 920 Left 2 !.op dec 100 100 2MEG
TEXT 48 -328 Left 2 !.MODEL mynpn AKO: 2N2222 (Bf=200 vaf = 100 Cjc = 1p TR = 1.6n)
TEXT 48 -296 Left 2 !.MODEL mypnp AKO: 2N2907 (Bf=200 vaf = 100  Cjc = 1p TR = 1.6n)
TEXT -824 -408 Left 2 !.ac dec 100 100 2MEG
