Version 4
SHEET 1 880 680
WIRE -288 80 -288 48
WIRE 528 80 496 80
WIRE 656 80 608 80
WIRE 64 96 32 96
WIRE 192 96 144 96
WIRE 400 160 336 160
WIRE 496 160 496 80
WIRE 496 160 480 160
WIRE 528 160 496 160
WIRE -64 176 -128 176
WIRE 32 176 32 96
WIRE 32 176 16 176
WIRE 64 176 32 176
WIRE 336 176 336 160
WIRE 656 176 656 80
WIRE 656 176 592 176
WIRE -288 192 -288 160
WIRE -288 192 -384 192
WIRE -128 192 -128 176
WIRE 192 192 192 96
WIRE 192 192 128 192
WIRE 528 192 496 192
WIRE -384 208 -384 192
WIRE -288 208 -288 192
WIRE 64 208 32 208
WIRE 336 320 336 256
WIRE 496 320 496 192
WIRE -288 336 -288 288
WIRE -128 336 -128 272
WIRE 32 336 32 208
FLAG 32 336 0
FLAG -128 336 0
FLAG -384 208 0
FLAG -288 48 v++
FLAG 96 160 v++
FLAG -288 336 v--
FLAG 96 224 v--
FLAG 496 320 0
FLAG 336 320 0
FLAG 560 144 v++
FLAG 560 208 v--
SYMBOL OpAmps\\opamp2 96 128 R0
SYMATTR InstName U1
SYMATTR Value LM741
SYMBOL res 32 160 R90
WINDOW 0 0 56 VBottom 2
WINDOW 3 32 56 VTop 2
SYMATTR InstName R1
SYMATTR Value 1k
SYMBOL res 160 80 R90
WINDOW 0 0 56 VBottom 2
WINDOW 3 -16 10 VTop 2
SYMATTR InstName R2
SYMATTR Value 10k
SYMBOL voltage -128 176 R0
WINDOW 123 24 124 Left 2
WINDOW 39 0 0 Left 0
SYMATTR Value2 AC 75m
SYMATTR InstName V1
SYMATTR Value ""
SYMBOL voltage -288 64 R0
WINDOW 123 0 0 Left 0
WINDOW 39 0 0 Left 0
SYMATTR InstName V2
SYMATTR Value 12
SYMBOL voltage -288 192 R0
WINDOW 123 0 0 Left 0
WINDOW 39 0 0 Left 0
SYMATTR InstName V3
SYMATTR Value 12
SYMBOL OpAmps\\opamp2 560 112 R0
SYMATTR InstName U2
SYMATTR Value LM741
SYMBOL res 496 144 R90
WINDOW 0 0 56 VBottom 2
WINDOW 3 32 56 VTop 2
SYMATTR InstName R3
SYMATTR Value 1k
SYMBOL res 624 64 R90
WINDOW 0 0 56 VBottom 2
WINDOW 3 -16 10 VTop 2
SYMATTR InstName R4
SYMATTR Value 10k
SYMBOL voltage 336 160 R0
WINDOW 3 24 152 Left 2
WINDOW 123 24 124 Left 2
WINDOW 39 0 0 Left 0
SYMATTR Value SINE(0 0.5 75k)
SYMATTR Value2 AC 0.5
SYMATTR InstName V4
TEXT 56 -80 Left 2 !.include lm741.lib
TEXT -400 424 Left 2 !.ac dec 3 1 10Meg
TEXT 544 360 Left 2 ;.tran 0.5m
